[TITLE]
;;Project Title/Notes

[OPTIONS]
;;Option             Value
FLOW_UNITS           CMS
INFILTRATION         HORTON
FLOW_ROUTING         DYNWAVE
LINK_OFFSETS         DEPTH
MIN_SLOPE            0
ALLOW_PONDING        NO
SKIP_STEADY_STATE    NO

START_DATE           05/24/2022
START_TIME           00:00:00
REPORT_START_DATE    05/24/2022
REPORT_START_TIME    00:00:00
END_DATE             05/24/2022
END_TIME             06:00:00
SWEEP_START          1/1
SWEEP_END            12/31
DRY_DAYS             0
REPORT_STEP          00:15:00
WET_STEP             00:05:00
DRY_STEP             01:00:00
ROUTING_STEP         0:00:20
RULE_STEP            00:00:00

INERTIAL_DAMPING     PARTIAL
NORMAL_FLOW_LIMITED  BOTH
FORCE_MAIN_EQUATION  H-W
VARIABLE_STEP        0.75
LENGTHENING_STEP     0
MIN_SURFAREA         0
MAX_TRIALS           0
HEAD_TOLERANCE       0
SYS_FLOW_TOL         5
LAT_FLOW_TOL         5
MINIMUM_STEP         0.5
THREADS              1

[EVAPORATION]
;;Data Source    Parameters
;;-------------- ----------------
CONSTANT         0.0
DRY_ONLY         NO

[RAINGAGES]
;;Name           Format    Interval SCF      Source 
;;-------------- --------- ------ ------ ----------
General          INTENSITY 1:00     1.0      TIMESERIES

[SUBCATCHMENTS]
;;Name           Rain Gage        Outlet           Area     %Imperv  Width    %Slope   CurbLen  SnowPack
;;-------------- ---------------- ---------------- -------- -------- -------- -------- -------- ----------------
catch0           General          0                2.2521   23       500      0.5      0
catch1           General          1                0.4573   23       500      0.5      0
catch2           General          2                1.1264   23       500      0.5      0
catch3           General          3                4.1689   23       500      0.5      0
catch4           General          4                0.5451   23       500      0.5      0
catch5           General          5                2.053    23       500      0.5      0
catch6           General          6                0.7889   23       500      0.5      0
catch7           General          7                1.0679   23       500      0.5      0
catch8           General          8                0.4808   23       500      0.5      0
catch9           General          9                1.4109   23       500      0.5      0
catch10          General          10               0.3797   23       500      0.5      0
catch11          General          11               0.5194   23       500      0.5      0
catch12          General          12               0.4179   23       500      0.5      0
catch13          General          13               0.5355   23       500      0.5      0
catch14          General          14               0.3885   23       500      0.5      0
catch15          General          15               1.464    23       500      0.5      0
catch16          General          16               0.3225   23       500      0.5      0
catch17          General          17               0.5099   23       500      0.5      0
catch18          General          18               0.4624   23       500      0.5      0
catch19          General          19               0.3735   23       500      0.5      0
catch20          General          20               0.3157   23       500      0.5      0
catch21          General          21               0.4942   23       500      0.5      0
catch22          General          22               0.5194   23       500      0.5      0
catch23          General          23               0.5584   23       500      0.5      0
catch24          General          24               0.4868   23       500      0.5      0
catch25          General          25               0.4065   23       500      0.5      0
catch26          General          26               0.5195   23       500      0.5      0
catch27          General          27               0.5136   23       500      0.5      0
catch28          General          28               1.0826   23       500      0.5      0
catch29          General          29               0.2669   23       500      0.5      0
catch30          General          30               0.7635   23       500      0.5      0
catch31          General          31               0.3817   23       500      0.5      0
catch32          General          32               0.4007   23       500      0.5      0
catch33          General          33               0.5022   23       500      0.5      0
catch34          General          34               0.4304   23       500      0.5      0
catch35          General          35               0.2693   23       500      0.5      0
catch36          General          36               0.3117   23       500      0.5      0
catch37          General          37               0.4287   23       500      0.5      0
catch38          General          38               0.4082   23       500      0.5      0
catch39          General          39               0.3737   23       500      0.5      0
catch40          General          40               0.2789   23       500      0.5      0
catch41          General          41               0.4414   23       500      0.5      0
catch42          General          42               0.4767   23       500      0.5      0
catch43          General          43               0.2029   23       500      0.5      0
catch44          General          44               0.29     23       500      0.5      0
catch45          General          45               0.4508   23       500      0.5      0
catch46          General          46               0.2718   23       500      0.5      0
catch47          General          47               0.1513   23       500      0.5      0
catch48          General          48               0.2885   23       500      0.5      0
catch49          General          49               0.3403   23       500      0.5      0
catch50          General          50               0.2725   23       500      0.5      0
catch51          General          51               0.4864   23       500      0.5      0
catch52          General          52               0.1283   23       500      0.5      0
catch53          General          53               0.3539   23       500      0.5      0
catch54          General          54               0.504    23       500      0.5      0
catch55          General          55               0.464    23       500      0.5      0
catch56          General          56               0.1721   23       500      0.5      0
catch57          General          57               0.2769   23       500      0.5      0
catch58          General          58               1.3332   23       500      0.5      0
catch59          General          59               0.3563   23       500      0.5      0
catch60          General          60               0.3465   23       500      0.5      0
catch61          General          61               2.0643   23       500      0.5      0
catch62          General          62               0.4422   23       500      0.5      0
catch63          General          63               0.1169   23       500      0.5      0
catch64          General          64               0.439    23       500      0.5      0
catch65          General          65               0.2726   23       500      0.5      0
catch66          General          66               0.46     23       500      0.5      0
catch67          General          67               0.3124   23       500      0.5      0
catch68          General          68               0.5865   23       500      0.5      0
catch69          General          69               0.2294   23       500      0.5      0
catch70          General          70               0.3618   23       500      0.5      0
catch71          General          71               0.5323   23       500      0.5      0
catch72          General          72               0.6373   23       500      0.5      0
catch73          General          73               0.4189   23       500      0.5      0
catch74          General          74               0.261    23       500      0.5      0
catch75          General          75               0.5312   23       500      0.5      0
catch76          General          76               0.4107   23       500      0.5      0
catch77          General          77               0.4403   23       500      0.5      0
catch78          General          78               0.8887   23       500      0.5      0
catch79          General          79               0.3267   23       500      0.5      0
catch80          General          80               0.3457   23       500      0.5      0
catch81          General          81               0.374    23       500      0.5      0
catch82          General          82               0.6063   23       500      0.5      0
catch83          General          83               0.229    23       500      0.5      0
catch84          General          84               0.3774   23       500      0.5      0
catch85          General          85               0.4626   23       500      0.5      0
catch86          General          86               0.3448   23       500      0.5      0
catch87          General          87               0.5487   23       500      0.5      0
catch88          General          88               0.6448   23       500      0.5      0
catch89          General          89               0.6127   23       500      0.5      0
catch90          General          90               0.5243   23       500      0.5      0
catch91          General          91               0.7611   23       500      0.5      0
catch92          General          92               0.6281   23       500      0.5      0
catch93          General          93               0.6233   23       500      0.5      0
catch94          General          94               0.6803   23       500      0.5      0
catch95          General          95               0.4382   23       500      0.5      0
catch96          General          96               0.3691   23       500      0.5      0
catch97          General          97               0.6176   23       500      0.5      0
catch98          General          98               0.3501   23       500      0.5      0
catch99          General          99               0.4274   23       500      0.5      0
catch100         General          100              1.7368   23       500      0.5      0
catch101         General          101              0.316    23       500      0.5      0
catch102         General          102              0.2928   23       500      0.5      0
catch103         General          103              0.3697   23       500      0.5      0
catch104         General          104              0.2701   23       500      0.5      0
catch105         General          105              0.39     23       500      0.5      0
catch106         General          106              0.3568   23       500      0.5      0
catch107         General          107              1.076    23       500      0.5      0
catch108         General          108              0.3476   23       500      0.5      0
catch109         General          109              0.2592   23       500      0.5      0
catch110         General          110              0.3685   23       500      0.5      0
catch111         General          111              0.3729   23       500      0.5      0
catch112         General          112              0.6428   23       500      0.5      0
catch113         General          113              0.9082   23       500      0.5      0
catch114         General          114              0.7128   23       500      0.5      0
catch115         General          115              2.5081   23       500      0.5      0
catch116         General          116              3.8966   23       500      0.5      0
catch117         General          117              0.2279   23       500      0.5      0
catch118         General          118              0.7306   23       500      0.5      0
catch119         General          119              1.3853   23       500      0.5      0
catch120         General          120              1.0699   23       500      0.5      0
catch121         General          121              1.5434   23       500      0.5      0
catch122         General          122              1.3184   23       500      0.5      0
catch123         General          123              1.4137   23       500      0.5      0
catch124         General          124              1.5959   23       500      0.5      0
catch125         General          125              1.6079   23       500      0.5      0
catch126         General          126              1.4871   23       500      0.5      0
catch127         General          127              1.8554   23       500      0.5      0
catch128         General          128              0.778    23       500      0.5      0
catch129         General          129              0.3667   23       500      0.5      0
catch130         General          130              0.5221   23       500      0.5      0
catch131         General          131              0.4734   23       500      0.5      0
catch132         General          132              0.485    23       500      0.5      0
catch133         General          133              0.5444   23       500      0.5      0
catch134         General          134              0.4722   23       500      0.5      0
catch135         General          135              0.4397   23       500      0.5      0
catch136         General          136              0.6399   23       500      0.5      0
catch137         General          137              0.3492   23       500      0.5      0
catch138         General          138              0.6477   23       500      0.5      0
catch139         General          139              0.3225   23       500      0.5      0
catch140         General          140              0.3398   23       500      0.5      0
catch141         General          141              1.1794   23       500      0.5      0
catch142         General          142              2.3309   23       500      0.5      0
catch143         General          143              1.9696   23       500      0.5      0
catch144         General          144              0.2896   23       500      0.5      0
catch145         General          145              0.26     23       500      0.5      0
catch146         General          146              0.5357   23       500      0.5      0
catch147         General          147              0.6223   23       500      0.5      0
catch148         General          148              1.3959   23       500      0.5      0
catch149         General          149              1.6849   23       500      0.5      0
catch150         General          150              1.7977   23       500      0.5      0
catch151         General          151              1.8002   23       500      0.5      0
catch152         General          152              1.7886   23       500      0.5      0
catch153         General          153              1.5793   23       500      0.5      0
catch154         General          154              0.7928   23       500      0.5      0
catch155         General          155              0.5117   23       500      0.5      0
catch156         General          156              0.3105   23       500      0.5      0
catch157         General          157              0.9791   23       500      0.5      0
catch158         General          158              1.3045   23       500      0.5      0
catch159         General          159              0.8119   23       500      0.5      0
catch160         General          160              0.6103   23       500      0.5      0
catch161         General          161              0.8165   23       500      0.5      0
catch162         General          162              0.8956   23       500      0.5      0
catch163         General          163              0.8852   23       500      0.5      0

[SUBAREAS]
;;Subcatchment   N-Imperv   N-Perv     S-Imperv   S-Perv     PctZero    RouteTo    PctRouted
;;-------------- ---------- ---------- ---------- ---------- ---------- ---------- ----------
catch0           0.01       0.1        0.05       0.05       25         OUTLET
catch1           0.01       0.1        0.05       0.05       25         OUTLET
catch2           0.01       0.1        0.05       0.05       25         OUTLET
catch3           0.01       0.1        0.05       0.05       25         OUTLET
catch4           0.01       0.1        0.05       0.05       25         OUTLET
catch5           0.01       0.1        0.05       0.05       25         OUTLET
catch6           0.01       0.1        0.05       0.05       25         OUTLET
catch7           0.01       0.1        0.05       0.05       25         OUTLET
catch8           0.01       0.1        0.05       0.05       25         OUTLET
catch9           0.01       0.1        0.05       0.05       25         OUTLET
catch10          0.01       0.1        0.05       0.05       25         OUTLET
catch11          0.01       0.1        0.05       0.05       25         OUTLET
catch12          0.01       0.1        0.05       0.05       25         OUTLET
catch13          0.01       0.1        0.05       0.05       25         OUTLET
catch14          0.01       0.1        0.05       0.05       25         OUTLET
catch15          0.01       0.1        0.05       0.05       25         OUTLET
catch16          0.01       0.1        0.05       0.05       25         OUTLET
catch17          0.01       0.1        0.05       0.05       25         OUTLET
catch18          0.01       0.1        0.05       0.05       25         OUTLET
catch19          0.01       0.1        0.05       0.05       25         OUTLET
catch20          0.01       0.1        0.05       0.05       25         OUTLET
catch21          0.01       0.1        0.05       0.05       25         OUTLET
catch22          0.01       0.1        0.05       0.05       25         OUTLET
catch23          0.01       0.1        0.05       0.05       25         OUTLET
catch24          0.01       0.1        0.05       0.05       25         OUTLET
catch25          0.01       0.1        0.05       0.05       25         OUTLET
catch26          0.01       0.1        0.05       0.05       25         OUTLET
catch27          0.01       0.1        0.05       0.05       25         OUTLET
catch28          0.01       0.1        0.05       0.05       25         OUTLET
catch29          0.01       0.1        0.05       0.05       25         OUTLET
catch30          0.01       0.1        0.05       0.05       25         OUTLET
catch31          0.01       0.1        0.05       0.05       25         OUTLET
catch32          0.01       0.1        0.05       0.05       25         OUTLET
catch33          0.01       0.1        0.05       0.05       25         OUTLET
catch34          0.01       0.1        0.05       0.05       25         OUTLET
catch35          0.01       0.1        0.05       0.05       25         OUTLET
catch36          0.01       0.1        0.05       0.05       25         OUTLET
catch37          0.01       0.1        0.05       0.05       25         OUTLET
catch38          0.01       0.1        0.05       0.05       25         OUTLET
catch39          0.01       0.1        0.05       0.05       25         OUTLET
catch40          0.01       0.1        0.05       0.05       25         OUTLET
catch41          0.01       0.1        0.05       0.05       25         OUTLET
catch42          0.01       0.1        0.05       0.05       25         OUTLET
catch43          0.01       0.1        0.05       0.05       25         OUTLET
catch44          0.01       0.1        0.05       0.05       25         OUTLET
catch45          0.01       0.1        0.05       0.05       25         OUTLET
catch46          0.01       0.1        0.05       0.05       25         OUTLET
catch47          0.01       0.1        0.05       0.05       25         OUTLET
catch48          0.01       0.1        0.05       0.05       25         OUTLET
catch49          0.01       0.1        0.05       0.05       25         OUTLET
catch50          0.01       0.1        0.05       0.05       25         OUTLET
catch51          0.01       0.1        0.05       0.05       25         OUTLET
catch52          0.01       0.1        0.05       0.05       25         OUTLET
catch53          0.01       0.1        0.05       0.05       25         OUTLET
catch54          0.01       0.1        0.05       0.05       25         OUTLET
catch55          0.01       0.1        0.05       0.05       25         OUTLET
catch56          0.01       0.1        0.05       0.05       25         OUTLET
catch57          0.01       0.1        0.05       0.05       25         OUTLET
catch58          0.01       0.1        0.05       0.05       25         OUTLET
catch59          0.01       0.1        0.05       0.05       25         OUTLET
catch60          0.01       0.1        0.05       0.05       25         OUTLET
catch61          0.01       0.1        0.05       0.05       25         OUTLET
catch62          0.01       0.1        0.05       0.05       25         OUTLET
catch63          0.01       0.1        0.05       0.05       25         OUTLET
catch64          0.01       0.1        0.05       0.05       25         OUTLET
catch65          0.01       0.1        0.05       0.05       25         OUTLET
catch66          0.01       0.1        0.05       0.05       25         OUTLET
catch67          0.01       0.1        0.05       0.05       25         OUTLET
catch68          0.01       0.1        0.05       0.05       25         OUTLET
catch69          0.01       0.1        0.05       0.05       25         OUTLET
catch70          0.01       0.1        0.05       0.05       25         OUTLET
catch71          0.01       0.1        0.05       0.05       25         OUTLET
catch72          0.01       0.1        0.05       0.05       25         OUTLET
catch73          0.01       0.1        0.05       0.05       25         OUTLET
catch74          0.01       0.1        0.05       0.05       25         OUTLET
catch75          0.01       0.1        0.05       0.05       25         OUTLET
catch76          0.01       0.1        0.05       0.05       25         OUTLET
catch77          0.01       0.1        0.05       0.05       25         OUTLET
catch78          0.01       0.1        0.05       0.05       25         OUTLET
catch79          0.01       0.1        0.05       0.05       25         OUTLET
catch80          0.01       0.1        0.05       0.05       25         OUTLET
catch81          0.01       0.1        0.05       0.05       25         OUTLET
catch82          0.01       0.1        0.05       0.05       25         OUTLET
catch83          0.01       0.1        0.05       0.05       25         OUTLET
catch84          0.01       0.1        0.05       0.05       25         OUTLET
catch85          0.01       0.1        0.05       0.05       25         OUTLET
catch86          0.01       0.1        0.05       0.05       25         OUTLET
catch87          0.01       0.1        0.05       0.05       25         OUTLET
catch88          0.01       0.1        0.05       0.05       25         OUTLET
catch89          0.01       0.1        0.05       0.05       25         OUTLET
catch90          0.01       0.1        0.05       0.05       25         OUTLET
catch91          0.01       0.1        0.05       0.05       25         OUTLET
catch92          0.01       0.1        0.05       0.05       25         OUTLET
catch93          0.01       0.1        0.05       0.05       25         OUTLET
catch94          0.01       0.1        0.05       0.05       25         OUTLET
catch95          0.01       0.1        0.05       0.05       25         OUTLET
catch96          0.01       0.1        0.05       0.05       25         OUTLET
catch97          0.01       0.1        0.05       0.05       25         OUTLET
catch98          0.01       0.1        0.05       0.05       25         OUTLET
catch99          0.01       0.1        0.05       0.05       25         OUTLET
catch100         0.01       0.1        0.05       0.05       25         OUTLET
catch101         0.01       0.1        0.05       0.05       25         OUTLET
catch102         0.01       0.1        0.05       0.05       25         OUTLET
catch103         0.01       0.1        0.05       0.05       25         OUTLET
catch104         0.01       0.1        0.05       0.05       25         OUTLET
catch105         0.01       0.1        0.05       0.05       25         OUTLET
catch106         0.01       0.1        0.05       0.05       25         OUTLET
catch107         0.01       0.1        0.05       0.05       25         OUTLET
catch108         0.01       0.1        0.05       0.05       25         OUTLET
catch109         0.01       0.1        0.05       0.05       25         OUTLET
catch110         0.01       0.1        0.05       0.05       25         OUTLET
catch111         0.01       0.1        0.05       0.05       25         OUTLET
catch112         0.01       0.1        0.05       0.05       25         OUTLET
catch113         0.01       0.1        0.05       0.05       25         OUTLET
catch114         0.01       0.1        0.05       0.05       25         OUTLET
catch115         0.01       0.1        0.05       0.05       25         OUTLET
catch116         0.01       0.1        0.05       0.05       25         OUTLET
catch117         0.01       0.1        0.05       0.05       25         OUTLET
catch118         0.01       0.1        0.05       0.05       25         OUTLET
catch119         0.01       0.1        0.05       0.05       25         OUTLET
catch120         0.01       0.1        0.05       0.05       25         OUTLET
catch121         0.01       0.1        0.05       0.05       25         OUTLET
catch122         0.01       0.1        0.05       0.05       25         OUTLET
catch123         0.01       0.1        0.05       0.05       25         OUTLET
catch124         0.01       0.1        0.05       0.05       25         OUTLET
catch125         0.01       0.1        0.05       0.05       25         OUTLET
catch126         0.01       0.1        0.05       0.05       25         OUTLET
catch127         0.01       0.1        0.05       0.05       25         OUTLET
catch128         0.01       0.1        0.05       0.05       25         OUTLET
catch129         0.01       0.1        0.05       0.05       25         OUTLET
catch130         0.01       0.1        0.05       0.05       25         OUTLET
catch131         0.01       0.1        0.05       0.05       25         OUTLET
catch132         0.01       0.1        0.05       0.05       25         OUTLET
catch133         0.01       0.1        0.05       0.05       25         OUTLET
catch134         0.01       0.1        0.05       0.05       25         OUTLET
catch135         0.01       0.1        0.05       0.05       25         OUTLET
catch136         0.01       0.1        0.05       0.05       25         OUTLET
catch137         0.01       0.1        0.05       0.05       25         OUTLET
catch138         0.01       0.1        0.05       0.05       25         OUTLET
catch139         0.01       0.1        0.05       0.05       25         OUTLET
catch140         0.01       0.1        0.05       0.05       25         OUTLET
catch141         0.01       0.1        0.05       0.05       25         OUTLET
catch142         0.01       0.1        0.05       0.05       25         OUTLET
catch143         0.01       0.1        0.05       0.05       25         OUTLET
catch144         0.01       0.1        0.05       0.05       25         OUTLET
catch145         0.01       0.1        0.05       0.05       25         OUTLET
catch146         0.01       0.1        0.05       0.05       25         OUTLET
catch147         0.01       0.1        0.05       0.05       25         OUTLET
catch148         0.01       0.1        0.05       0.05       25         OUTLET
catch149         0.01       0.1        0.05       0.05       25         OUTLET
catch150         0.01       0.1        0.05       0.05       25         OUTLET
catch151         0.01       0.1        0.05       0.05       25         OUTLET
catch152         0.01       0.1        0.05       0.05       25         OUTLET
catch153         0.01       0.1        0.05       0.05       25         OUTLET
catch154         0.01       0.1        0.05       0.05       25         OUTLET
catch155         0.01       0.1        0.05       0.05       25         OUTLET
catch156         0.01       0.1        0.05       0.05       25         OUTLET
catch157         0.01       0.1        0.05       0.05       25         OUTLET
catch158         0.01       0.1        0.05       0.05       25         OUTLET
catch159         0.01       0.1        0.05       0.05       25         OUTLET
catch160         0.01       0.1        0.05       0.05       25         OUTLET
catch161         0.01       0.1        0.05       0.05       25         OUTLET
catch162         0.01       0.1        0.05       0.05       25         OUTLET
catch163         0.01       0.1        0.05       0.05       25         OUTLET

[INFILTRATION]
;;Subcatchment   Param1     Param2     Param3     Param4     Param5
;;-------------- ---------- ---------- ---------- ---------- ----------
catch0           3.0        0.5        4          7          0
catch1           3.0        0.5        4          7          0
catch2           3.0        0.5        4          7          0
catch3           3.0        0.5        4          7          0
catch4           3.0        0.5        4          7          0
catch5           3.0        0.5        4          7          0
catch6           3.0        0.5        4          7          0
catch7           3.0        0.5        4          7          0
catch8           3.0        0.5        4          7          0