[TITLE]
;;Project Title/Notes

[OPTIONS]
;;Option             Value
FLOW_UNITS           CMS
INFILTRATION         HORTON
FLOW_ROUTING         DYNWAVE
LINK_OFFSETS         DEPTH
MIN_SLOPE            0
ALLOW_PONDING        NO
SKIP_STEADY_STATE    NO

START_DATE           05/29/2022
START_TIME           00:00:00
REPORT_START_DATE    05/29/2022
REPORT_START_TIME    00:00:00
END_DATE             05/29/2022
END_TIME             06:00:00
SWEEP_START          1/1
SWEEP_END            12/31
DRY_DAYS             0
REPORT_STEP          00:05:00
WET_STEP             00:01:00
DRY_STEP             00:10:00
ROUTING_STEP         0:00:10
RULE_STEP            00:00:00

INERTIAL_DAMPING     PARTIAL
NORMAL_FLOW_LIMITED  BOTH
FORCE_MAIN_EQUATION  H-W
VARIABLE_STEP        0.75
LENGTHENING_STEP     0
MIN_SURFAREA         0
MAX_TRIALS           0
HEAD_TOLERANCE       0
SYS_FLOW_TOL         5
LAT_FLOW_TOL         5
MINIMUM_STEP         0.5
THREADS              1

[EVAPORATION]
;;Data Source    Parameters
;;-------------- ----------------
CONSTANT         0.0
DRY_ONLY         NO

[RAINGAGES]
;;Name           Format    Interval SCF      Source 
;;-------------- --------- ------ ------ ----------
General          INTENSITY 0:05     1.0      TIMESERIES Design_Storm

[SUBCATCHMENTS]
;;Name           Rain Gage        Outlet           Area     %Imperv  Width    %Slope   CurbLen  SnowPack
;;-------------- ---------------- ---------------- -------- -------- -------- -------- -------- ----------------
sub_0            General          j_0              2.255    50       500      0.5      0
sub_1            General          j_1              0.4573   50       500      0.5      0
sub_2            General          j_2              1.6423   50       500      0.5      0
sub_3            General          j_3              4.4943   50       500      0.5      0
sub_4            General          j_4              0.5451   50       500      0.5      0
sub_5            General          j_5              1.2133   50       500      0.5      0
sub_6            General          j_6              1.7208   50       500      0.5      0
sub_7            General          j_7              1.1071   50       500      0.5      0
sub_8            General          j_8              0.4811   50       500      0.5      0
sub_9            General          j_9              1.3461   50       500      0.5      0
sub_10           General          j_10             1.416    50       500      0.5      0
sub_11           General          j_11             0.3827   50       500      0.5      0
sub_12           General          j_12             0.7362   50       500      0.5      0
sub_13           General          j_13             0.4179   50       500      0.5      0
sub_14           General          j_14             0.723    50       500      0.5      0
sub_15           General          j_15             0.4413   50       500      0.5      0
sub_16           General          j_16             0.8134   50       500      0.5      0
sub_17           General          j_17             0.3352   50       500      0.5      0
sub_18           General          j_18             0.7135   50       500      0.5      0
sub_19           General          j_19             0.4788   50       500      0.5      0
sub_20           General          j_20             0.4101   50       500      0.5      0
sub_21           General          j_21             0.5107   50       500      0.5      0
sub_22           General          j_22             0.4941   50       500      0.5      0
sub_23           General          j_23             0.5195   50       500      0.5      0
sub_24           General          j_24             0.5584   50       500      0.5      0
sub_25           General          j_25             0.4867   50       500      0.5      0
sub_26           General          j_26             0.43     50       500      0.5      0
sub_27           General          j_27             0.5195   50       500      0.5      0
sub_28           General          j_28             0.4934   50       500      0.5      0
sub_29           General          j_29             1.0587   50       500      0.5      0
sub_30           General          j_30             0.3198   50       500      0.5      0
sub_31           General          j_31             0.586    50       500      0.5      0
sub_32           General          j_32             0.3817   50       500      0.5      0
sub_33           General          j_33             0.5582   50       500      0.5      0
sub_34           General          j_34             0.5448   50       500      0.5      0
sub_35           General          j_35             0.5769   50       500      0.5      0
sub_36           General          j_36             0.2922   50       500      0.5      0
sub_37           General          j_37             0.5081   50       500      0.5      0
sub_38           General          j_38             0.4573   50       500      0.5      0
sub_39           General          j_39             0.4082   50       500      0.5      0
sub_40           General          j_40             0.3737   50       500      0.5      0
sub_41           General          j_41             0.4342   50       500      0.5      0
sub_42           General          j_42             0.6285   50       500      0.5      0
sub_43           General          j_43             0.6277   50       500      0.5      0
sub_44           General          j_44             0.6358   50       500      0.5      0
sub_45           General          j_45             1.4833   50       500      0.5      0
sub_46           General          j_46             0.4093   50       500      0.5      0
sub_47           General          j_47             0.3331   50       500      0.5      0
sub_48           General          j_48             0.3108   50       500      0.5      0
sub_49           General          j_49             0.5648   50       500      0.5      0
sub_50           General          j_50             0.4184   50       500      0.5      0
sub_51           General          j_51             0.5053   50       500      0.5      0
sub_52           General          j_52             0.5356   50       500      0.5      0
sub_53           General          j_53             0.3659   50       500      0.5      0
sub_54           General          j_54             0.4621   50       500      0.5      0
sub_55           General          j_55             0.3742   50       500      0.5      0
sub_56           General          j_56             0.3561   50       500      0.5      0
sub_57           General          j_57             0.3376   50       500      0.5      0
sub_58           General          j_58             2.5095   50       500      0.5      0
sub_59           General          j_59             0.4812   50       500      0.5      0
sub_60           General          j_60             0.439    50       500      0.5      0
sub_61           General          j_61             0.3203   50       500      0.5      0
sub_62           General          j_62             0.5069   50       500      0.5      0
sub_63           General          j_63             0.3777   50       500      0.5      0
sub_64           General          j_64             0.6089   50       500      0.5      0
sub_65           General          j_65             0.4907   50       500      0.5      0
sub_66           General          j_66             0.5334   50       500      0.5      0
sub_67           General          j_67             0.6373   50       500      0.5      0
sub_68           General          j_68             0.4632   50       500      0.5      0
sub_69           General          j_69             0.6815   50       500      0.5      0
sub_70           General          j_70             0.6221   50       500      0.5      0
sub_71           General          j_71             0.502    50       500      0.5      0
sub_72           General          j_72             0.508    50       500      0.5      0
sub_73           General          j_73             0.9877   50       500      0.5      0
sub_74           General          j_74             0.3739   50       500      0.5      0
sub_75           General          j_75             0.597    50       500      0.5      0
sub_76           General          j_76             0.2806   50       500      0.5      0
sub_77           General          j_77             0.3792   50       500      0.5      0
sub_78           General          j_78             0.4647   50       500      0.5      0
sub_79           General          j_79             0.474    50       500      0.5      0
sub_80           General          j_80             0.5486   50       500      0.5      0
sub_81           General          j_81             0.6448   50       500      0.5      0
sub_82           General          j_82             0.6318   50       500      0.5      0
sub_83           General          j_83             0.5405   50       500      0.5      0
sub_84           General          j_84             0.7611   50       500      0.5      0
sub_85           General          j_85             1.0451   50       500      0.5      0
sub_86           General          j_86             0.6253   50       500      0.5      0
sub_87           General          j_87             0.6803   50       500      0.5      0
sub_88           General          j_88             0.4382   50       500      0.5      0
sub_89           General          j_89             0.3691   50       500      0.5      0
sub_90           General          j_90             0.6176   50       500      0.5      0
sub_91           General          j_91             0.3746   50       500      0.5      0
sub_92           General          j_92             0.4274   50       500      0.5      0
sub_93           General          j_93             2.1566   50       500      0.5      0
sub_94           General          j_94             0.3255   50       500      0.5      0
sub_95           General          j_95             0.4162   50       500      0.5      0
sub_96           General          j_96             0.4435   50       500      0.5      0
sub_97           General          j_97             0.7289   50       500      0.5      0
sub_98           General          j_98             0.39     50       500      0.5      0
sub_99           General          j_99             0.421    50       500      0.5      0
sub_100          General          j_100            1.5529   50       500      0.5      0
sub_101          General          j_101            0.3476   50       500      0.5      0
sub_102          General          j_102            0.2837   50       500      0.5      0
sub_103          General          j_103            0.5677   50       500      0.5      0
sub_104          General          j_104            0.6801   50       500      0.5      0
sub_105          General          j_105            0.9439   50       500      0.5      0
sub_106          General          j_106            1.1175   50       500      0.5      0
sub_107          General          j_107            1.4009   50       500      0.5      0
sub_108          General          j_108            0.725    50       500      0.5      0
sub_109          General          j_109            0.248    50       500      0.5      0
sub_110          General          j_110            0.7558   50       500      0.5      0
sub_111          General          j_111            0.5024   50       500      0.5      0
sub_112          General          j_112            1.3881   50       500      0.5      0
sub_113          General          j_113            1.1567   50       500      0.5      0
sub_114          General          j_114            2.3554   50       500      0.5      0
sub_115          General          j_115            3.063    50       500      0.5      0
sub_116          General          j_116            1.1277   50       500      0.5      0
sub_117          General          j_117            1.3628   50       500      0.5      0
sub_118          General          j_118            1.665    50       500      0.5      0
sub_119          General          j_119            1.7335   50       500      0.5      0
sub_120          General          j_120            0.8976   50       500      0.5      0
sub_121          General          j_121            1.0852   50       500      0.5      0
sub_122          General          j_122            1.4868   50       500      0.5      0
sub_123          General          j_123            2.5792   50       500      0.5      0
sub_124          General          j_124            3.522    50       500      0.5      0
sub_125          General          j_125            3.4014   50       500      0.5      0
sub_126          General          j_126            2.3251   50       500      0.5      0
sub_127          General          j_127            1.4858   50       500      0.5      0
sub_128          General          j_128            1.8538   50       500      0.5      0
sub_129          General          j_129            0.8266   50       500      0.5      0
sub_130          General          j_130            0.3919   50       500      0.5      0
sub_131          General          j_131            0.5555   50       500      0.5      0
sub_132          General          j_132            0.4688   50       500      0.5      0
sub_133          General          j_133            0.6031   50       500      0.5      0
sub_134          General          j_134            0.4397   50       500      0.5      0
sub_135          General          j_135            0.6477   50       500      0.5      0
sub_136          General          j_136            0.3589   50       500      0.5      0
sub_137          General          j_137            0.65     50       500      0.5      0
sub_138          General          j_138            2.6758   50       500      0.5      0
sub_139          General          j_139            2.8213   50       500      0.5      0
sub_140          General          j_140            0.4137   50       500      0.5      0
sub_141          General          j_141            0.914    50       500      0.5      0
sub_142          General          j_142            0.489    50       500      0.5      0
sub_143          General          j_143            2.0751   50       500      0.5      0
sub_144          General          j_144            2.1566   50       500      0.5      0
sub_145          General          j_145            2.1443   50       500      0.5      0
sub_146          General          j_146            2.014    50       500      0.5      0
sub_147          General          j_147            0.8029   50       500      0.5      0
sub_148          General          j_148            0.5386   50       500      0.5      0
sub_149          General          j_149            0.8384   50       500      0.5      0
sub_150          General          j_150            0.6235   50       500      0.5      0
sub_151          General          j_151            0.8355   50       500      0.5      0
sub_152          General          j_152            0.9068   50       500      0.5      0

[SUBAREAS]
;;Subcatchment   N-Imperv   N-Perv     S-Imperv   S-Perv     PctZero    RouteTo    PctRouted
;;-------------- ---------- ---------- ---------- ---------- ---------- ---------- ----------
sub_0            0.01       0.1        0.05       0.05       25         OUTLET
sub_1            0.01       0.1        0.05       0.05       25         OUTLET
sub_2            0.01       0.1        0.05       0.05       25         OUTLET
sub_3            0.01       0.1        0.05       0.05       25         OUTLET
sub_4            0.01       0.1        0.05       0.05       25         OUTLET
sub_5            0.01       0.1        0.05       0.05       25         OUTLET
sub_6            0.01       0.1        0.05       0.05       25         OUTLET
sub_7            0.01       0.1        0.05       0.05       25         OUTLET
sub_8            0.01       0.1        0.05       0.05       25         OUTLET
sub_9            0.01       0.1        0.05       0.05       25         OUTLET
sub_10           0.01       0.1        0.05       0.05       25         OUTLET
sub_11           0.01       0.1        0.05       0.05       25         OUTLET
sub_12           0.01       0.1        0.05       0.05       25         OUTLET
sub_13           0.01       0.1        0.05       0.05       25         OUTLET
sub_14           0.01       0.1        0.05       0.05       25         OUTLET
sub_15           0.01       0.1        0.05       0.05       25         OUTLET
sub_16           0.01       0.1        0.05       0.05       25         OUTLET
sub_17           0.01       0.1        0.05       0.05       25         OUTLET
sub_18           0.01       0.1        0.05       0.05       25         OUTLET
sub_19           0.01       0.1        0.05       0.05       25         OUTLET
sub_20           0.01       0.1        0.05       0.05       25         OUTLET
sub_21           0.01       0.1        0.05       0.05       25         OUTLET
sub_22           0.01       0.1        0.05       0.05       25         OUTLET
sub_23           0.01       0.1        0.05       0.05       25         OUTLET
sub_24           0.01       0.1        0.05       0.05       25         OUTLET
sub_25           0.01       0.1        0.05       0.05       25         OUTLET
sub_26           0.01       0.1        0.05       0.05       25         OUTLET
sub_27           0.01       0.1        0.05       0.05       25         OUTLET
sub_28           0.01       0.1        0.05       0.05       25         OUTLET
sub_29           0.01       0.1        0.05       0.05       25         OUTLET
sub_30           0.01       0.1        0.05       0.05       25         OUTLET
sub_31           0.01       0.1        0.05       0.05       25         OUTLET
sub_32           0.01       0.1        0.05       0.05       25         OUTLET
sub_33           0.01       0.1        0.05       0.05       25         OUTLET
sub_34           0.01       0.1        0.05       0.05       25         OUTLET
sub_35           0.01       0.1        0.05       0.05       25         OUTLET
sub_36           0.01       0.1        0.05       0.05       25         OUTLET
sub_37           0.01       0.1        0.05       0.05       25         OUTLET
sub_38           0.01       0.1        0.05       0.05       25         OUTLET
sub_39           0.01       0.1        0.05       0.05       25         OUTLET
sub_40           0.01       0.1        0.05       0.05       25         OUTLET
sub_41           0.01       0.1        0.05       0.05       25         OUTLET
sub_42           0.01       0.1        0.05       0.05       25         OUTLET
sub_43           0.01       0.1        0.05       0.05       25         OUTLET
sub_44           0.01       0.1        0.05       0.05       25         OUTLET
sub_45           0.01       0.1        0.05       0.05       25         OUTLET
sub_46           0.01       0.1        0.05       0.05       25         OUTLET
sub_47           0.01       0.1        0.05       0.05       25         OUTLET
sub_48           0.01       0.1        0.05       0.05       25         OUTLET
sub_49           0.01       0.1        0.05       0.05       25         OUTLET
sub_50           0.01       0.1        0.05       0.05       25         OUTLET
sub_51           0.01       0.1        0.05       0.05       25         OUTLET
sub_52           0.01       0.1        0.05       0.05       25         OUTLET
sub_53           0.01       0.1        0.05       0.05       25         OUTLET
sub_54           0.01       0.1        0.05       0.05       25         OUTLET
sub_55           0.01       0.1        0.05       0.05       25         OUTLET
sub_56           0.01       0.1        0.05       0.05       25         OUTLET
sub_57           0.01       0.1        0.05       0.05       25         OUTLET
sub_58           0.01       0.1        0.05       0.05       25         OUTLET
sub_59           0.01       0.1        0.05       0.05       25         OUTLET
sub_60           0.01       0.1        0.05       0.05       25         OUTLET
sub_61           0.01       0.1        0.05       0.05       25         OUTLET
sub_62           0.01       0.1        0.05       0.05       25         OUTLET
sub_63           0.01       0.1        0.05       0.05       25         OUTLET
sub_64           0.01       0.1        0.05       0.05       25         OUTLET
sub_65           0.01       0.1        0.05       0.05       25         OUTLET
sub_66           0.01       0.1        0.05       0.05       25         OUTLET
sub_67           0.01       0.1        0.05       0.05       25         OUTLET
sub_68           0.01       0.1        0.05       0.05       25         OUTLET
sub_69           0.01       0.1        0.05       0.05       25         OUTLET
sub_70           0.01       0.1        0.05       0.05       25         OUTLET
sub_71           0.01       0.1        0.05       0.05       25         OUTLET
sub_72           0.01       0.1        0.05       0.05       25         OUTLET
sub_73           0.01       0.1        0.05       0.05       25         OUTLET
sub_74           0.01       0.1        0.05       0.05       25         OUTLET
sub_75           0.01       0.1        0.05       0.05       25         OUTLET
sub_76           0.01       0.1        0.05       0.05       25         OUTLET
sub_77           0.01       0.1        0.05       0.05       25         OUTLET
sub_78           0.01       0.1        0.05       0.05       25         OUTLET
sub_79           0.01       0.1        0.05       0.05       25         OUTLET
sub_80           0.01       0.1        0.05       0.05       25         OUTLET
sub_81           0.01       0.1        0.05       0.05       25         OUTLET
sub_82           0.01       0.1        0.05       0.05       25         OUTLET
sub_83           0.01       0.1        0.05       0.05       25         OUTLET
sub_84           0.01       0.1        0.05       0.05       25         OUTLET
sub_85           0.01       0.1        0.05       0.05       25         OUTLET
sub_86           0.01       0.1        0.05       0.05       25         OUTLET
sub_87           0.01       0.1        0.05       0.05       25         OUTLET
sub_88           0.01       0.1        0.05       0.05       25         OUTLET
sub_89           0.01       0.1        0.05       0.05       25         OUTLET
sub_90           0.01       0.1        0.05       0.05       25         OUTLET
sub_91           0.01       0.1        0.05       0.05       25         OUTLET
sub_92           0.01       0.1        0.05       0.05       25         OUTLET
sub_93           0.01       0.1        0.05       0.05       25         OUTLET
sub_94           0.01       0.1        0.05       0.05       25         OUTLET
sub_95           0.01       0.1        0.05       0.05       25         OUTLET
sub_96           0.01       0.1        0.05       0.05       25         OUTLET
sub_97           0.01       0.1        0.05       0.05       25         OUTLET
sub_98           0.01       0.1        0.05       0.05       25         OUTLET
sub_99           0.01       0.1        0.05       0.05       25         OUTLET
sub_100          0.01       0.1        0.05       0.05       25         OUTLET
sub_101          0.01       0.1        0.05       0.05       25         OUTLET
sub_102          0.01       0.1        0.05       0.05       25         OUTLET
sub_103          0.01       0.1        0.05       0.05       25         OUTLET
sub_104          0.01       0.1        0.05       0.05       25         OUTLET
sub_105          0.01       0.1        0.05       0.05       25         OUTLET
sub_106          0.01       0.1        0.05       0.05       25         OUTLET
sub_107          0.01       0.1        0.05       0.05       25         OUTLET
sub_108          0.01       0.1        0.05       0.05       25         OUTLET
sub_109          0.01       0.1        0.05       0.05       25         OUTLET
sub_110          0.01       0.1        0.05       0.05       25         OUTLET
sub_111          0.01       0.1        0.05       0.05       25         OUTLET
sub_112          0.01       0.1        0.05       0.05       25         OUTLET
sub_113          0.01       0.1        0.05       0.05       25         OUTLET
sub_114          0.01       0.1        0.05       0.05       25         OUTLET
sub_115          0.01       0.1        0.05       0.05       25         OUTLET
sub_116          0.01       0.1        0.05       0.05       25         OUTLET
sub_117          0.01       0.1        0.05       0.05       25         OUTLET
sub_118          0.01       0.1        0.05       0.05       25         OUTLET
sub_119          0.01       0.1        0.05       0.05       25         OUTLET
sub_120          0.01       0.1        0.05       0.05       25         OUTLET
sub_121          0.01       0.1        0.05       0.05       25         OUTLET
sub_122          0.01       0.1        0.05       0.05       25         OUTLET
sub_123          0.01       0.1        0.05       0.05       25         OUTLET
sub_124          0.01       0.1        0.05       0.05       25         OUTLET
sub_125          0.01       0.1        0.05       0.05       25         OUTLET
sub_126          0.01       0.1        0.05       0.05       25         OUTLET
sub_127          0.01       0.1        0.05       0.05       25         OUTLET
sub_128          0.01       0.1        0.05       0.05       25         OUTLET
sub_129          0.01       0.1        0.05       0.05       25         OUTLET
sub_130          0.01       0.1        0.05       0.05       25         OUTLET
sub_131          0.01       0.1        0.05       0.05       25         OUTLET
sub_132          0.01       0.1        0.05       0.05       25         OUTLET
sub_133          0.01       0.1        0.05       0.05       25         OUTLET
sub_134          0.01       0.1        0.05       0.05       25         OUTLET
sub_135          0.01       0.1        0.05       0.05       25         OUTLET
sub_136          0.01       0.1        0.05       0.05       25         OUTLET
sub_137          0.01       0.1        0.05       0.05       25         OUTLET
sub_138          0.01       0.1        0.05       0.05       25         OUTLET
sub_139          0.01       0.1        0.05       0.05       25         OUTLET
sub_140          0.01       0.1        0.05       0.05       25         OUTLET
sub_141          0.01       0.1        0.05       0.05       25         OUTLET
sub_142          0.01       0.1        0.05       0.05       25         OUTLET
sub_143          0.01       0.1        0.05       0.05       25         OUTLET
sub_144          0.01       0.1        0.05       0.05       25         OUTLET
sub_145          0.01       0.1        0.05       0.05       25         OUTLET
sub_146          0.01       0.1        0.05       0.05       25         OUTLET
sub_147          0.01       0.1        0.05       0.05       25         OUTLET
sub_148          0.01       0.1        0.05       0.05       25         OUTLET
sub_149          0.01       0.1        0.05       0.05       25         OUTLET
sub_150          0.01       0.1        0.05       0.05       25         OUTLET
sub_151          0.01       0.1        0.05       0.05       25         OUTLET
sub_152          0.01       0.1        0.05       0.05       25         OUTLET

[INFILTRATION]
;;Subcatchment   Param1     Param2     Param3     Param4     Param5
;;-------------- ---------- ---------- ---------- ---------- ----------
sub_0            3.0        0.5        4          7          0
sub_1            3.0        0.5        4          7          0
sub_2            3.0        0.5        4          7          0
sub_3            3.0        0.5        4          7          0
sub_4            3.0        0.5        4          7          0
sub_5            3.0        0.5        4          7          0
sub_6            3.0        0.5        4          7          0
sub_7            3.0        0.5        4          7          0
sub_8            3.0        0.5        4          7          0
sub_9            3.0        0.5        4          7          0
sub_10           3.0        0.5        4          7          0
sub_11           3.0        0.5        4          7          0
sub_12           3.0        0.5        4          7          0
sub_13           3.0        0.5        4          7          0
sub_14           3.0        0.5        4          7          0
sub_15           3.0        0.5        4          7          0
sub_16           3.0        0.5        4          7          0
sub_17           3.0        0.5        4          7          0
sub_18           3.0        0.5        4          7          0
sub_19           3.0        0.5        4          7          0
sub_20           3.0        0.5        4          7          0
sub_21           3.0        0.5        4          7          0
sub_22           3.0        0.5        4          7          0
sub_23           3.0        0.5        4          7          0
sub_24           3.0        0.5        4          7          0
sub_25           3.0        0.5        4          7          0
sub_26           3.0        0.5        4          7          0
sub_27           3.0        0.5        4          7          0
sub_28           3.0        0.5        4          7          0
sub_29           3.0        0.5        4          7          0
sub_30           3.0        0.5        4          7          0
sub_31           3.0        0.5        4          7          0
sub_32           3.0        0.5        4          7          0
sub_33           3.0        0.5        4          7          0
sub_34           3.0        0.5        4          7          0
sub_35           3.0        0.5        4          7          0
sub_36           3.0        0.5        4          7          0
sub_37           3.0        0.5        4          7          0